8
AtomType	        X         	        Y         	        Z         	  SpinPolarization_r  SpinPolarization_theta  SpinPolarization_phi
   Pd      0.0000000000000000   0.0000000000000000   7.9077213254076460   1.0000000000000000    45.000000000000000     0.0000000000000000
   Pd      1.5895782092353620   0.0000000000000000   10.155724387361033   1.0000000000000000    45.000000000000000     0.0000000000000000
   Pd      3.1791564184707260   0.0000000000000000   12.403727449314422   1.0000000000000000    45.000000000000000     0.0000000000000000
   Pd      0.0000000000000000   0.0000000000000000   14.651730511267810   1.0000000000000000    45.000000000000000     0.0000000000000000
   Pd      1.5895782092353620   0.0000000000000000   16.899733573221198   1.0000000000000000    45.000000000000000     0.0000000000000000
   Pd      3.1791564184707260   0.0000000000000000   19.147736635174585   1.0000000000000000    45.000000000000000     0.0000000000000000
   Co      0.0000000000000000   0.0000000000000000   21.162756082609317   3.0000000000000000    45.000000000000000     0.0000000000000000
   Co      1.5895782092353620   0.0000000000000000   23.177775530044050   3.0000000000000000    45.000000000000000     0.0000000000000000
